/*--------------------------------*- C++ -*----------------------------------*\
  =========                 |
  \\      /  F ield         | OpenFOAM: The Open Source CFD Toolbox
   \\    /   O peration     | Website:  https://openfoam.org
    \\  /    A nd           | Version:  7
     \\/     M anipulation  |
\*---------------------------------------------------------------------------*/
FoamFile
{
    version     2.0;
    format      binary;
    class       polyBoundaryMesh;
    location    "constant/polyMesh";
    object      boundary;
}
// * * * * * * * * * * * * * * * * * * * * * * * * * * * * * * * * * * * * * //

3
(
    cylinder
    {
        type            patch;
        nFaces          2000;
        startFace       43700;
    }
    bottomLoading
    {
        type            patch;
        nFaces          300;
        startFace       45700;
    }
    topLoading
    {
        type            patch;
        nFaces          300;
        startFace       46000;
    }
)

// ************************************************************************* //
